data/example_grid.raw
0,   100.00, 33, 0, 0, 50.00     / PSS(R)E-33.5    THU, JUL 12 2018  13:50
BENCHMARK MODEL BASED ON SHANDONG POWER GRID
SHANDONG UNIVERSITY, LI CHANGGANG/YANZHAO, 2020/12/12
     1,'BUS-1       ', 525.0000,1,  37,   1,   1,1.00139,  -0.1727,1.10000,0.90000,1.10000,0.90000,50.0
     2,'BUS-2       ', 525.0000,1,  37,   1,   1,0.99993,   3.8635,1.10000,0.90000,1.10000,0.90000,50.0
     3,'BUS-3       ', 525.0000,1,  37,   1,   1,1.00139,  -0.1727,1.10000,0.90000,1.10000,0.90000,50.0
     4,'BUS-4       ', 525.0000,1,  37,   1,   1,0.99993,   3.8635,1.10000,0.90000,1.10000,0.90000,50.0
     5,'BUS-5       ', 525.0000,1,  37,   1,   1,1.00000,  -0.1727,1.10000,0.90000,1.10000,0.90000,50.0
     6,'BUS-6       ', 525.0000,1,  37,   1,   1,0.99993,   3.8635,1.10000,0.90000,1.10000,0.90000,50.0
     7,'BUS-7       ', 525.0000,1,  37,   1,   1,1.00139,  -0.1727,1.10000,0.90000,1.10000,0.90000,50.0
     8,'BUS-8       ',  20.0000,2,  37,   1,   1,1.00000,   3.8635,1.10000,0.90000,1.10000,0.90000,50.0
     9,'BUS-9       ', 525.0000,1,  37,   1,   1,1.00139,  -0.1727,1.10000,0.90000,1.10000,0.90000,50.0
    10,'BUS-10      ',1050.0000,1,  37,   1,   1,0.99993,   3.8635,1.10000,0.90000,1.10000,0.90000,50.0
    11,'BUS-11      ',1050.0000,1,  37,   1,   1,1.00139,  -0.1727,1.10000,0.90000,1.10000,0.90000,50.0
	12,'BUS-12      ',  20.0000,2,  37,   1,   1,1.00000,   3.8635,1.10000,0.90000,1.10000,0.90000,50.0
    13,'BUS-13      ', 115.0000,1,  37,   1,   1,1.00139,  -0.1727,1.10000,0.90000,1.10000,0.90000,50.0	    
    14,'BUS-14      ', 525.0000,1,  37,   1,   1,0.99993,   3.8635,1.10000,0.90000,1.10000,0.90000,50.0
    15,'BUS-15      ', 345.0000,1,  37,   1,   1,0.97800,  -2.3440,1.10000,0.90000,1.10000,0.90000,50.0	
    16,'BUS-16      ',  20.0000,2,  37,   1,   1,1.00000,   3.8635,1.10000,0.90000,1.10000,0.90000,50.0
    17,'BUS-17      ',  20.0000,2,  37,   1,   1,1.00000,   3.8635,1.10000,0.90000,1.10000,0.90000,50.0
    18,'BUS-18      ',  20.0000,3,  37,   1,   1,1.00000,   0.0000,1.10000,0.90000,1.10000,0.90000,50.0
    19,'BUS-19      ',  20.0000,2,  37,   1,   1,1.00000,   3.8635,1.10000,0.90000,1.10000,0.90000,50.0
	20,'BUS-20      ',  20.0000,3,  37,   1,   1,1.00000,   0.0000,1.10000,0.90000,1.10000,0.90000,50.0
0 / END OF BUS DATA, BEGIN LOAD DATA
     1,'1 ',1,  37,   1,  1000.000,   150.000,     0.000,     0.000,     0.000,     0.000,   1,0,0
     2,'1 ',1,  37,   1,  1200.000,   200.000,     0.000,     0.000,     0.000,     0.000,   1,0,0
     4,'1 ',1,  37,   1,  1500.000,   250.000,     0.000,     0.000,     0.000,     0.000,   1,0,0
     6,'1 ',1,  37,   1,  2500.000,   300.000,     0.000,     0.000,     0.000,     0.000,   1,0,0    
    13,'1 ',1,  37,   1,  2000.000,   200.000,     0.000,     0.000,     0.000,     0.000,   1,0,0
0 / END OF LOAD DATA, BEGIN FIXED SHUNT DATA
     5,'1 ',1,     0.000,  1000.000
    10,'1 ',1,     0.000,  -300.000      
0 / END OF FIXED SHUNT DATA, BEGIN GENERATOR DATA
     8,'1 ',   800.000,     0.000,     0.000,    -0.000,1.00000,     0,   800.000,   0.000000,   0.010000,       0.00,       0.00,   1.00,1,  100.0,  9999.000,     0.000,   1,1.0000, 0, 0, 0, 0, 0, 0, 2, 1, 2
    12,'1 ',     0.000,    18.262,  9999.000, -9999.000,1.00000,     0,  3000.000, 0.00000E+0, 1.50000E-1, 0.00000E+0, 0.00000E+0,1.00000,1,  100.0,  9999.000,     0.000,   1,1.0000, 0, 0, 0, 0, 0, 0, 0, 0, 0
    16,'1 ',  1000.000,     0.000,  9999.000, -9999.000,1.00000,     0,  1000.000, 0.00000E+0, 1.50000E-1, 0.00000E+0, 0.00000E+0,1.00000,1,  100.0,  9999.000,     0.000,   1,1.0000, 0, 0, 0, 0, 0, 0, 3, 1, 1
    17,'1 ',   800.000,    18.262,  9999.000, -9999.000,1.00000,     0,  3000.000, 0.00000E+0, 1.50000E-1, 0.00000E+0, 0.00000E+0,1.00000,1,  100.0,  9999.000,     0.000,   1,1.0000, 0, 0, 0, 0, 0, 0, 0, 0, 0
    18,'1 ',  2000.300,  1000.262,  9999.000, -9999.000,1.00000,     0,  3000.000, 0.00000E+0, 1.50000E-1, 0.00000E+0, 0.00000E+0,1.00000,1,  100.0,  9999.000,     0.000,   1,1.0000, 0, 0, 0, 0, 0, 0, 0, 0, 0
    19,'1 ',  3000.000,    18.262,  9999.000, -9999.000,1.00000,     0,  3500.000, 0.00000E+0, 1.50000E-1, 0.00000E+0, 0.00000E+0,1.00000,1,  100.0,  9999.000,     0.000,   1,1.0000, 0, 0, 0, 0, 0, 0, 0, 0, 0
    20,'1 ',   200.000,    18.262,  9999.000, -9999.000,1.00000,     0,  3000.000, 0.00000E+0, 1.50000E-1, 0.00000E+0, 0.00000E+0,1.00000,1,  100.0,  9999.000,     0.000,   1,1.0000, 0, 0, 0, 0, 0, 0, 0, 0, 0
0 / END OF GENERATOR DATA, BEGIN BRANCH DATA
     1,     2,'1', 5.20000E-4, 8.21000E-3,   0.93748, 3106.26,    0.00,    0.00,  0.00000,  0.00000,  0.00000,  0.00000,1,2,  81.00,   1,0.5000,   1,0.5000
     1,     9,'1', 2.00000E-4, 4.48000E-3,   0.51864, 3964.66,    0.00,    0.00,  0.00000,  0.00000,  0.00000,  0.00000,1,1,  45.00,   1,0.5000,   1,0.5000
     2,     3,'1', 3.30000E-4, 4.59000E-3,   0.48706, 3106.26,    0.00,    0.00,  0.00000,  0.00000,  0.00000,  0.00000,1,1,  45.00,   1,0.5000,   1,0.5000
     2,    14,'1', 2.20000E-4, 4.98000E-3,   0.57626, 3964.66,    0.00,    0.00,  0.00000,  0.00000,  0.00000,  0.00000,1,1,  50.00,   1,0.5000,   1,0.5000	 
     3,     4,'1', 3.30000E-4, 4.59000E-3,   0.48706, 3106.26,    0.00,    0.00,  0.00000,  0.00000,  0.00000,  0.00000,1,1,  45.00,   1,0.5000,   1,0.5000
     4,     5,'1', 4.60000E-4, 5.60000E-3,   0.61830, 2582.49,    0.00,    0.00,  0.00000,  0.00000,  0.00000,  0.00000,1,1,  55.00,   1,0.5000,   1,0.5000
     5,     6,'1', 4.20000E-4, 5.91000E-3,   0.62778, 3106.26,    0.00,    0.00,  0.00000,  0.00000,  0.00000,  0.00000,1,1,  58.00,   1,0.5000,   1,0.5000
     5,     6,'2', 4.20000E-4, 5.91000E-3,   0.62778, 3106.26,    0.00,    0.00,  0.00000,  0.00000,  0.00000,  0.00000,1,1,  58.00,   1,0.5000,   1,0.5000
     6,     7,'1', 3.30000E-4, 5.05000E-3,   0.70542, 4317.48,    0.00,    0.00,  0.00000,  0.00000,  0.00000,  0.00000,1,2,   0.40,   1,0.5000,   1,0.5000
     7,     9,'1', 2.50000E-4, 3.49000E-3,   0.40338, 3964.66,    0.00,    0.00,  0.00000,  0.00000,  0.00000,  0.00000,1,2,  35.00,   1,0.5000,   1,0.5000
     9,    14,'1', 4.40000E-4, 6.12000E-3,   0.64942, 3106.26,    0.00,    0.00,  0.00000,  0.00000,  0.00000,  0.00000,1,1,  60.00,   1,0.5000,   1,0.5000
    10,    11,'1', 8.00000E-5, 2.91000E-3,   9.28420,17269.90,    0.00,    0.00,  0.00000,  0.00000,  0.00000, -3.00000,1,2, 126.00,   1,0.5000,   1,0.5000
    10,    11,'2', 8.00000E-5, 2.91000E-3,   9.28420,17269.90,    0.00,    0.00,  0.00000, -3.00000,  0.00000,  0.00000,1,2, 126.00,   1,0.5000,   1,0.5000
0 / END OF BRANCH DATA, BEGIN TRANSFORMER DATA
     1,    20,     0,'1',1,1,1, 0.00000E+0, 0.00000E+0,2,'            ',1,   1,1.0000,   0,1.0000,   0,1.0000,   0,1.0000,'            '
 0.00000E+0, 1.00000E-3,   100.00
1.00000,   0.000,   0.000,     0.00,     0.00,     0.00, 0,      0, 1.10000, 0.90000, 1.10000, 0.90000,  33, 0, 0.00000, 0.00000,  0.000
1.00000,   0.000
     3,    17,     0,'1',1,1,1, 0.00000E+0, 0.00000E+0,2,'            ',1,   1,1.0000,   0,1.0000,   0,1.0000,   0,1.0000,'            '
 0.00000E+0, 1.00000E-3,   100.00
1.00000,   0.000,   0.000,     0.00,     0.00,     0.00, 0,      0, 1.10000, 0.90000, 1.10000, 0.90000,  33, 0, 0.00000, 0.00000,  0.000
1.00000,   0.000
     5,    12,     0,'1',1,1,1, 0.00000E+0, 0.00000E+0,2,'            ',1,   1,1.0000,   0,1.0000,   0,1.0000,   0,1.0000,'            '
 0.00000E+0, 1.00000E-3,   100.00
1.00500,   0.000,   0.000,     0.00,     0.00,     0.00, 0,      0, 1.10000, 0.90000, 1.10000, 0.90000,  33, 0, 0.00000, 0.00000,  0.000
1.00000,   0.000
     7,     8,     0,'1',1,1,1, 0.00000E+0, 0.00000E+0,2,'            ',1,   1,1.0000,   0,1.0000,   0,1.0000,   0,1.0000,'            '
 0.00000E+0, 1.00000E-3,   100.00
1.00000,   0.000,   0.000,     0.00,     0.00,     0.00, 0,      0, 1.10000, 0.90000, 1.10000, 0.90000,  33, 0, 0.00000, 0.00000,  0.000
1.00000,   0.000
   10,    9,    13,    "1", 1, 1, 1, 0.000000, 0.000000, 2, "                ", 1, 1, 1.000000, 0, 0.000000, 0, 0.000000, 0, 0.000000, ""
0.000049, 0.05860,  3000.00, 0.00019, 0.12564,  3000.00, 0.000187, 0.019839,  1002.00, 1.0, 0.0
1.000000, 1050.00,   0.00,     0.00,     0.00,     0.00, 0, 0, 1.100000, 0.900000,     1.10,     0.90,  33,   0, 0.0, 0.0, 0.0
1.000000,  525.00,   0.00,     0.00,     0.00,     0.00, 0, 0, 1.100000, 0.900000,     1.10,     0.90,  33,   0, 0.0, 0.0, 0.0
1.05000,  115.00,   0.00,     0.00,     0.00,     0.00, 0, 0, 1.100000, 0.900000,     1.10,     0.90,  33,   0, 0.0, 0.0, 0.0
   11,    19,        0,    "1", 1, 1, 1, 0.000000, 0.000000, 2, "                ", 1, 1, 1.000000, 0, 0.000000, 0, 0.000000, 0, 0.000000, ""
0.000043, 0.0052227,  3500.000000
1.025000, 1050.00,   0.00,     0.00,     0.00,     0.00, 0, 0, 1.100000, 0.900000,     1.10,     0.90,  33,   0, 0.0, 0.0, 0.0
1.000000,   20.00
    14,    16,     0,'1',1,1,1, 0.00000E+0, 0.00000E+0,2,'            ',1,   1,1.0000,   0,1.0000,   0,1.0000,   0,1.0000,'            '
 0.00000E+0, 1.00000E-3,   100.00
1.00000,   0.000,   0.000,     0.00,     0.00,     0.00, 0,      0, 1.10000, 0.90000, 1.10000, 0.90000,  33, 0, 0.00000, 0.00000,  0.000
1.00000,   0.000
    15,    18,     0,'1',1,1,1, 0.00000E+0, 0.00000E+0,2,'            ',1,   1,1.0000,   0,1.0000,   0,1.0000,   0,1.0000,'            '
 0.00000E+0, 3.3333E-5,   100.00
1.00000,   0.000,   0.000,     0.00,     0.00,     0.00, 0,      0, 1.10000, 0.90000, 1.10000, 0.90000,  33, 0, 0.00000, 0.00000,  0.000
1.00000,   0.000
0 / END OF TRANSFORMER DATA, BEGIN AREA DATA
  37,     0,     0.000,    10.000,'IEEE          '
0 / END OF AREA DATA, BEGIN TWO-TERMINAL DC DATA
"DC1         ",1,    9.5000,   2000.00,    660.00,    500.00,    0.0000,   0.00000,'I',      0.00,  20,   1.00000
    15, 2,90.00,15.00, 0.0000, 9.1530, 345.0,0.72464,0.85000,1.30000,0.70000,0.02500,     0,     0,     0,'1 ', 0.0000
     5, 2,90.00,15.00, 0.0000, 9.8846, 525.0,0.47619,0.87500,1.30000,0.70000,0.02500,     0,     0,     0,'1 ', 0.0000
0 / END OF TWO-TERMINAL DC DATA, BEGIN VSC DC LINE DATA
0 / END OF VSC DC LINE DATA, BEGIN IMPEDANCE CORRECTION DATA
0 / END OF IMPEDANCE CORRECTION DATA, BEGIN MULTI-TERMINAL DC DATA
0 / END OF MULTI-TERMINAL DC DATA, BEGIN MULTI-SECTION LINE DATA
0 / END OF MULTI-SECTION LINE DATA, BEGIN ZONE DATA
0 / END OF ZONE DATA, BEGIN INTER-AREA TRANSFER DATA
0 / END OF INTER-AREA TRANSFER DATA, BEGIN OWNER DATA
0 / END OF OWNER DATA, BEGIN FACTS DEVICE DATA
0 / END OF FACTS DEVICE DATA, BEGIN SWITCHED SHUNT DATA
0 / END OF SWITCHED SHUNT DATA, BEGIN GNE DATA
0 / END OF GNE DATA, BEGIN INDUCTION MACHINE DATA
0 / END OF INDUCTION MACHINE DATA
Q